Version 4
SHEET 1 984 680
WIRE 32 -176 0 -176
WIRE 112 -176 96 -176
WIRE 208 -176 192 -176
WIRE 224 -176 208 -176
WIRE 320 -176 288 -176
WIRE 112 -128 112 -176
WIRE 208 -128 208 -176
WIRE 0 -64 0 -176
WIRE 16 -64 0 -64
WIRE 320 -64 320 -176
WIRE 320 -64 304 -64
WIRE 0 32 -16 32
WIRE 16 32 0 32
WIRE 320 32 304 32
WIRE 352 32 320 32
WIRE 624 32 608 32
WIRE 640 32 624 32
WIRE 736 32 720 32
WIRE 320 48 320 32
WIRE 736 48 736 32
WIRE 624 96 624 32
WIRE 624 96 448 96
WIRE -80 112 -160 112
WIRE 544 112 368 112
WIRE -80 128 -80 112
WIRE 16 128 -80 128
WIRE 624 128 304 128
WIRE 320 144 320 112
WIRE 544 144 544 112
WIRE 512 160 480 160
WIRE 624 176 624 128
WIRE 624 176 576 176
WIRE 656 176 624 176
WIRE 752 176 736 176
WIRE 448 192 448 96
WIRE 512 192 448 192
WIRE -112 224 -112 128
WIRE -96 224 -112 224
WIRE 0 224 0 32
WIRE 0 224 -16 224
WIRE 16 224 0 224
WIRE 320 224 304 224
WIRE 368 224 368 112
WIRE 368 224 320 224
WIRE 544 224 544 208
WIRE -112 256 -112 224
WIRE 480 256 480 160
WIRE 752 256 752 176
WIRE 752 256 480 256
WIRE 320 272 320 224
WIRE 400 272 320 272
WIRE 480 272 480 256
WIRE 320 320 320 272
WIRE 320 320 304 320
WIRE 480 368 480 352
WIRE 160 400 160 384
WIRE 320 400 320 384
WIRE -160 448 -160 112
WIRE 400 448 400 272
WIRE 400 448 -160 448
FLAG -320 0 0
FLAG -320 -80 VIN
FLAG -16 32 VIN
FLAG -176 16 VIN
FLAG -176 80 0
FLAG -112 256 0
FLAG 160 400 0
FLAG 320 400 0
FLAG 544 224 0
FLAG 736 48 0
FLAG 480 368 0
FLAG 320 144 0
SYMBOL LTC3129 160 128 R0
SYMATTR InstName U1
SYMBOL AD8515 544 112 R0
SYMATTR InstName U2
SYMBOL ind 96 -160 R270
WINDOW 0 32 56 VTop 2
WINDOW 3 5 56 VBottom 2
SYMATTR InstName L1
SYMATTR Value 6.8µ
SYMBOL cap 96 -192 R90
WINDOW 0 0 32 VBottom 2
WINDOW 3 32 32 VTop 2
SYMATTR InstName C1
SYMATTR Value 22n
SYMBOL cap 288 -192 R90
WINDOW 0 0 32 VBottom 2
WINDOW 3 32 32 VTop 2
SYMATTR InstName C2
SYMATTR Value 22n
SYMBOL voltage -320 -96 R0
WINDOW 123 0 0 Left 0
WINDOW 39 24 44 Left 2
SYMATTR SpiceLine Rser=100m
SYMATTR InstName V1
SYMATTR Value 3
SYMBOL cap -192 16 R0
SYMATTR InstName C3
SYMATTR Value 22µ
SYMBOL res 0 208 R90
WINDOW 0 0 56 VBottom 2
WINDOW 3 32 56 VTop 2
SYMATTR InstName R1
SYMATTR Value 10k
SYMBOL cap 304 320 R0
SYMATTR InstName C4
SYMATTR Value 4.7µ
SYMBOL diode 352 48 R270
WINDOW 0 32 32 VTop 2
WINDOW 3 0 32 VBottom 2
SYMATTR InstName D1
SYMBOL diode 416 48 R270
WINDOW 0 32 32 VTop 2
WINDOW 3 0 32 VBottom 2
SYMATTR InstName D2
SYMBOL diode 480 48 R270
WINDOW 0 32 32 VTop 2
WINDOW 3 0 32 VBottom 2
SYMATTR InstName D3
SYMBOL diode 544 48 R270
WINDOW 0 32 32 VTop 2
WINDOW 3 0 32 VBottom 2
SYMATTR InstName D4
SYMBOL res 736 16 R90
WINDOW 0 0 56 VBottom 2
WINDOW 3 32 56 VTop 2
SYMATTR InstName R2
SYMATTR Value 1
SYMBOL res 752 160 R90
WINDOW 0 0 56 VBottom 2
WINDOW 3 32 56 VTop 2
SYMATTR InstName R3
SYMATTR Value 10k
SYMBOL res 464 256 R0
SYMATTR InstName R4
SYMATTR Value 300
SYMBOL cap 304 48 R0
SYMATTR InstName C5
SYMATTR Value 22µ
TEXT 552 -192 Left 2 !.tran 100m startup
